FoamFile
{
    version         2.0;
    format          ascii;
    class           dictionary;
    object          blockMeshDict;
}

convertToMeters 1;

vertices
(
    (0.0 0.0 0.0)
    (0.0 0.0 0.002)
    (0.0 0.016 0.0)
    (0.0 0.016 0.002)
    (0.128 0.0 0.0)
    (0.128 0.0 0.002)
    (0.128 0.016 0.0)
    (0.128 0.016 0.002)

    (0.3 0.0 0.0)
    (0.3 0.0 0.002)
    (0.3 0.016 0.0)
    (0.3 0.016 0.002)
    (0.192 0.0 0.0)
    (0.192 0.0 0.002)
    (0.192 0.016 0.0)
    (0.192 0.016 0.002)

    (0.154 0.0 0.0)
    (0.154 0.0 0.002)
    (0.154 0.016 0.0)
    (0.154 0.016 0.002)

    (0.166 0.016 0.0)
    (0.166 0.016 0.002)
    (0.166 0.0 0.0)
    (0.166 0.0 0.002)

    (0.1564 0.0032 0.0)
    (0.1564 0.0032 0.002)
    (0.1564 0.0128 0.0)
    (0.1564 0.0128 0.002)
    (0.1636 0.0128 0.0)
    (0.1636 0.0128 0.002)
    (0.1636 0.0032 0.0)
    (0.1636 0.0032 0.002)
);

edges
(
    arc 16 18 (0.148 0.008 0.0)
    arc 17 19 (0.148 0.008 0.002)
    arc 22 20 (0.172 0.008 0.0)
    arc 23 21 (0.172 0.008 0.002)
    arc 24 26 (0.154 0.008 0.0)
    arc 25 27 (0.154 0.008 0.002)
    arc 26 28 (0.16 0.014 0.0)
    arc 27 29 (0.16 0.014 0.002)
    arc 28 30 (0.166 0.008 0.0)
    arc 29 31 (0.166 0.008 0.002)
    arc 24 30 (0.16 0.002 0.0)
    arc 25 31 (0.16 0.002 0.002)
);

blocks
(
    hex (0 4 6 2 1 5 7 3) (60 20 3) simpleGrading (0.5 1 1)
    hex (4 16 18 6 5 17 19 7) (20 20 3) simpleGrading (1 1 1)
    hex (16 24 26 18 17 25 27 19) (10 20 3) simpleGrading (1 1 1)
    hex (26 28 20 18 27 29 21 19) (20 10 3) simpleGrading (1 1 1)
    hex (16 22 30 24 17 23 31 25) (20 10 3) simpleGrading (1 1 1)
    hex (30 22 20 28 31 23 21 29) (10 20 3) simpleGrading (1 1 1)
    hex (22 12 14 20 23 13 15 21) (20 20 3) simpleGrading (1 1 1)
    hex (12 8 10 14 13 9 11 15) (60 20 3) simpleGrading (2 1 1)
);

patches
(
    patch inlet
    (
        (0 1 3 2)
    )

    patch outlet
    (
        (9 8 10 11)
    )

    wall fixedWalls 
    (
        (2 3 7 6)
        (6 7 19 18)
        (18 19 21 20)
        (20 21 15 14)
        (14 15 11 10)

        (0 1 5 4)
        (4 5 17 16)
        (16 17 23 22)
        (22 23 13 12)
        (12 13 9 8)
    )

    wall cylinder
    (
        (24 25 31 30)
        (30 31 29 28)
        (28 29 27 26)
        (26 27 25 24)
    )

    wall frontAndBack
    (
        (0 2 6 4)
        (4 6 18 16)
        (16 18 26 24)
       // (26 24 30 28)
        
        (28 30 22 20)
        (22 20 14 12)
        (12 14 10 8)

        (1 5 7 3)
        (5 17 19 7)
        (17 25 27 19)
        (27 29 21 19)
        (31 23 21 29)
        (25 17 23 31)
        (23 13 15 21)
        (13 9 11 15)
    )
);

mergePatchPairs();

